$ NASTRAN input file created by the Patran 2011 64-Bit input file
$ translator on June      01, 2020 at 21:10:46.
$ Linear Static Analysis, Database
$ Direct Text Input for Bulk Data
$ Elements and Element Properties for region : P1
PSHELL   1       1      1.       1               1
$ Pset: "P1" will be imported as: "pshell.1"
CTRIA3   1       1       122     129     121
CTRIA3   2       1       123     130     122
CTRIA3   3       1       124     131     123
CTRIA3   4       1       125     132     124
CTRIA3   5       1       126     133     125
CTRIA3   6       1       127     134     126
CTRIA3   7       1       128     135     127
CTRIA3   8       1       121     136     128
CTRIA3   9       1       3       120     1
CTRIA3   10      1       4       137     3
CTRIA3   11      1       5       138     4
CTRIA3   12      1       6       139     5
CTRIA3   13      1       7       140     6
CTRIA3   14      1       8       141     7
CTRIA3   15      1       9       142     8
CTRIA3   16      1       10      143     9
CTRIA3   17      1       11      144     10
CTRIA3   18      1       12      145     11
CTRIA3   19      1       13      146     12
CTRIA3   20      1       14      147     13
$ ... 1128 like lines cut
$ Referenced Material Records
$ Material Record : STEEL
$ Description of Material : Date: 17-May-20           Time: 10:33:48
MAT1     1      200000.         .3
$ Nodes of the Entire Model
GRID     1              5.      1.       0.
GRID     2              -5.     1.       0.
GRID     3              4.8     1.       0.
GRID     4              4.6     1.       0.
GRID     5              4.4     1.       0.
GRID     6              4.2     1.       0.
GRID     7              4.      1.       0.
GRID     8              3.8     1.       0.
GRID     9              3.6     1.       0.
GRID     10             3.4     1.       0.
GRID     11             3.2     1.       0.
GRID     12             3.      1.       0.
GRID     13             2.8     1.       0.
GRID     14             2.6     1.       0.
GRID     15             2.4     1.       0.
GRID     16             2.2     1.       0.
GRID     17             2.      1.       0.
GRID     18             1.8     1.       0.
GRID     19             1.6     1.       0.
GRID     20             1.4     1.       0.
$ ... 618 like lines cut
$ Loads for Load Case : Default
$ Enforced Displacements for Load Set : BC1
$ Dummy Force Required to Activate the Following Enforced Displacements
FORCE    1       1               0.     .57735  .57735  .57735
SPCD     1       1       1      5.       2       1      5.
SPCD     1       3       1      5.       4       1      5.
SPCD     1       5       1      5.       6       1      5.
SPCD     1       7       1      5.       8       1      5.
SPCD     1       9       1      5.       10      1      5.
SPCD     1       11      1      5.       12      1      5.
SPCD     1       13      1      5.       14      1      5.
SPCD     1       15      1      5.       16      1      5.
SPCD     1       17      1      5.       18      1      5.
SPCD     1       19      1      5.       20      1      5.
SPCD     1       21      1      5.       22      1      5.
SPCD     1       23      1      5.       24      1      5.
SPCD     1       25      1      5.       26      1      5.
SPCD     1       27      1      5.       28      1      5.
SPCD     1       29      1      5.       30      1      5.
SPCD     1       31      1      5.       32      1      5.
SPCD     1       33      1      5.       34      1      5.
SPCD     1       35      1      5.       36      1      5.
SPCD     1       37      1      5.       38      1      5.
SPCD     1       39      1      5.       40      1      5.
$ ... 40 like lines cut
$ Displacement Constraints of Load Set : BC1
SPC1     1       123     1       THRU    120
$ Displacement Constraints of Load Set : BC2
SPC1     3       123     121     THRU    128
$ Referenced Coordinate Frames
