$ NASTRAN input file created by the Patran 2011 64-Bit input file
$ translator on May       31, 2020 at 23:38:06.
$ Linear Static Analysis, Database
$ Direct Text Input for Bulk Data
$ Elements and Element Properties for region : P1
PSHELL   1       1      .01      1               1
$ Pset: "P1" will be imported as: "pshell.1"
CTRIA3   1       1       23      22      1
CTRIA3   2       1       1       2       23
CTRIA3   3       1       2       3       23
CTRIA3   4       1       24      23      3
CTRIA3   5       1       25      24      3
CTRIA3   6       1       3       4       25
CTRIA3   7       1       4       5       25
CTRIA3   8       1       26      25      5
CTRIA3   9       1       27      26      5
CTRIA3   10      1       5       6       27
CTRIA3   11      1       6       7       27
CTRIA3   12      1       28      27      7
CTRIA3   13      1       29      28      7
CTRIA3   14      1       7       8       29
CTRIA3   15      1       8       9       29
CTRIA3   16      1       30      29      9
CTRIA3   17      1       31      30      9
CTRIA3   18      1       9       10      31
CTRIA3   19      1       10      11      31
CTRIA3   20      1       32      31      11
$ ... 780 like lines cut
$ Referenced Material Records
$ Material Record : STEEL
$ Description of Material : Date: 31-May-20           Time: 10:26:30
MAT1     1      2.+11           .3
$ Nodes of the Entire Model
GRID     1              1.       0.      0.
GRID     2              .95      0.      0.
GRID     3              .9       0.      0.
GRID     4              .85      0.      0.
GRID     5              .8       0.      0.
GRID     6              .75      0.      0.
GRID     7              .7       0.      0.
GRID     8              .65      0.      0.
GRID     9              .6       0.      0.
GRID     10             .55      0.      0.
GRID     11             .5       0.      0.
GRID     12             .45      0.      0.
GRID     13             .4       0.      0.
GRID     14             .35      0.      0.
GRID     15             .3       0.      0.
GRID     16             .25      0.      0.
GRID     17             .2       0.      0.
GRID     18             .15      0.      0.
GRID     19             .1       0.      0.
GRID     20             .05      0.      0.
$ ... 421 like lines cut
$ Loads for Load Case : Default
$ Enforced Displacements for Load Set : BC2
$ Dummy Force Required to Activate the Following Enforced Displacements
FORCE    1       1               0.     .57735  .57735  .57735
SPCD     1       1       1      5.       2       1      5.
SPCD     1       3       1      5.       4       1      5.
SPCD     1       5       1      5.       6       1      5.
SPCD     1       7       1      5.       8       1      5.
SPCD     1       9       1      5.       10      1      5.
SPCD     1       11      1      5.       12      1      5.
SPCD     1       13      1      5.       14      1      5.
SPCD     1       15      1      5.       16      1      5.
SPCD     1       17      1      5.       18      1      5.
SPCD     1       19      1      5.       20      1      5.
SPCD     1       21      1      5.
$ Displacement Constraints of Load Set : BC1
SPC1     1       123     1       21      22      42      43      63
         64      84      85      105     106     126     127     147
         148     168     169     189     190     210     211     231
         232     252     253     273     274     294     295     315
         316     336     337     357     358     378     379     399
         400
SPC1     1       123     420     THRU    441
$ Displacement Constraints of Load Set : BC2
SPC1     3       123     1       THRU    21
$ Referenced Coordinate Frames
