$ NASTRAN input file created by the Patran 2012 64-Bit input file
$ translator on February  17, 2018 at 21:10:39.
$
$ Direct Text Input for Bulk Data
$ Elements and Element Properties for region : P1
PSHELL   1       1      .1       1               1
$ Pset: "P1" will be imported as: "pshell.1"
CTRIA3   1       1       42      127     41
CTRIA3   2       1       43      61      42
CTRIA3   3       1       44      62      43
CTRIA3   4       1       45      63      44
CTRIA3   5       1       46      64      45
CTRIA3   6       1       47      65      46
CTRIA3   7       1       48      135     47
CTRIA3   8       1       49      66      48
CTRIA3   9       1       50      67      49
CTRIA3   10      1       51      68      50
CTRIA3   11      1       52      69      51
CTRIA3   12      1       53      140     52
CTRIA3   13      1       54      70      53
CTRIA3   14      1       55      138     54
CTRIA3   15      1       56      72      55
CTRIA3   16      1       57      73      56
CTRIA3   17      1       58      74      57
CTRIA3   18      1       59      75      58
CTRIA3   19      1       60      76      59
CTRIA3   20      1       41      77      60
$ ... 204 like lines cut
$ Referenced Material Records
$ Material Record : STEEL
$ Description of Material : Date: 17-Feb-18           Time: 21:03:35
MAT1     1      2.+11           .3
$ Nodes of the Entire Model
GRID     1               0.     1.       0.
GRID     2              5.      1.       0.
GRID     3              .294118 1.       0.
GRID     4              .588235 1.       0.
GRID     5              .882353 1.       0.
GRID     6              1.17647 1.       0.
GRID     7              1.47059 1.       0.
GRID     8              1.76471 1.       0.
GRID     9              2.05882 1.       0.
GRID     10             2.35294 1.       0.
GRID     11             2.64706 1.       0.
GRID     12             2.94118 1.       0.
GRID     13             3.23529 1.       0.
GRID     14             3.52941 1.       0.
GRID     15             3.82353 1.       0.
GRID     16             4.11765 1.       0.
GRID     17             4.41176 1.       0.
GRID     18             4.70588 1.       0.
GRID     19             5.       0.      0.
GRID     20             5.      .666667  0.
GRID     21             5.      .333333  0.
GRID*    22                             1.86833-9        0.
*        0.
GRID     23             4.70588  0.      0.
GRID     24             4.41176  0.      0.
GRID     25             4.11765  0.      0.
GRID     26             3.82353  0.      0.
GRID     27             3.52941  0.      0.
GRID     28             3.23529  0.      0.
GRID     29             2.94118  0.      0.
GRID     30             2.64706  0.      0.
GRID     31             2.35294  0.      0.
GRID     32             2.05882  0.      0.
GRID     33             1.76471  0.      0.
GRID     34             1.47059  0.      0.
GRID     35             1.17647  0.      0.
GRID     36             .882353  0.      0.
GRID     37             .588235  0.      0.
GRID     38             .294118  0.      0.
GRID     39              0.     .333333  0.
GRID     40              0.     .666667  0.
GRID     41             2.7     .5       0.
GRID     42             2.69031 .561824  0.
$ ... 100 like lines cut
$ Loads for Load Case : Default
$ Displacement Constraints of Load Set : BC1
SPC1     1       123     41      THRU    60
$ Nodal Forces of Load Set : L1
FORCE    1       1       0      1.      1.       0.      0.
$ Referenced Coordinate Frames
