$ NASTRAN input file created by the Patran 2011 64-Bit input file
$ translator on May       17, 2020 at 10:59:17.
$ Linear Static Analysis, Database
$ Direct Text Input for Bulk Data
$ Elements and Element Properties for region : P1
PSHELL   1       1      1.       1               1
$ Pset: "P1" will be imported as: "pshell.1"
CTRIA3   1       1       58      138     57
CTRIA3   2       1       59      139     58
CTRIA3   3       1       60      67      59
CTRIA3   4       1       61      113     60
CTRIA3   5       1       62      68      61
CTRIA3   6       1       63      69      62
CTRIA3   7       1       64      70      63
CTRIA3   8       1       65      71      64
CTRIA3   9       1       66      72      65
CTRIA3   10      1       57      137     66
CTRIA3   11      1       21      19      2
CTRIA3   12      1       22      73      21
CTRIA3   13      1       23      73      22
CTRIA3   14      1       24      74      23
CTRIA3   15      1       25      75      24
CTRIA3   16      1       26      76      25
CTRIA3   17      1       27      77      26
CTRIA3   18      1       28      78      27
CTRIA3   19      1       29      79      28
CTRIA3   20      1       32      150     31
$ ... 220 like lines cut
$ Referenced Material Records
$ Material Record : STEEL
$ Description of Material : Date: 17-May-20           Time: 10:33:48
MAT1     1      200000.         .3
$ Nodes of the Entire Model
GRID     1              5.      1.       0.
GRID     2              -5.     1.       0.
GRID     3              4.44444 1.       0.
GRID     4              3.88889 1.       0.
GRID     5              3.33333 1.       0.
GRID     6              2.77778 1.       0.
GRID     7              2.22222 1.       0.
GRID     8              1.66667 1.       0.
GRID     9              1.11111 1.       0.
GRID     10             .555556 1.       0.
GRID     11             2.9954-71.       0.
GRID     12             -.5555561.       0.
GRID     13             -1.111111.       0.
GRID     14             -1.666671.       0.
GRID     15             -2.222221.       0.
GRID     16             -2.777781.       0.
GRID     17             -3.333331.       0.
GRID     18             -3.888891.       0.
GRID     19             -4.444441.       0.
GRID     20             -5.     -1.      0.
$ ... 133 like lines cut
$ Loads for Load Case : Default
$ Displacement Constraints of Load Set : BC1
SPC1     1       123     1       30
SPC1     1       123     48      THRU    56
$ Pressures of Total Load Set : LOAD1
FORCE    1       21             .05     1.       0.      0.
FORCE    1       2              .05     1.       0.      0.
FORCE    1       22             .05     1.       0.      0.
FORCE    1       21             .05     1.       0.      0.
FORCE    1       23             .05     1.       0.      0.
FORCE    1       22             .05     1.       0.      0.
FORCE    1       24             .05     1.       0.      0.
FORCE    1       23             .05     1.       0.      0.
FORCE    1       25             .05     1.       0.      0.
FORCE    1       24             .05     1.       0.      0.
FORCE    1       26             .05     1.       0.      0.
FORCE    1       25             .05     1.       0.      0.
FORCE    1       27             .05     1.       0.      0.
FORCE    1       26             .05     1.       0.      0.
FORCE    1       28             .05     1.       0.      0.
FORCE    1       27             .05     1.       0.      0.
FORCE    1       29             .05     1.       0.      0.
FORCE    1       28             .05     1.       0.      0.
FORCE    1       20             .05     1.       0.      0.
FORCE    1       29             .05     1.       0.      0.
$ Force or value sum: 1.000000
$ Referenced Coordinate Frames
