$ NASTRAN input file created by the Patran 2011 64-Bit input file
$ translator on June      06, 2020 at 15:42:33.
$ Linear Static Analysis, Database
$ Direct Text Input for Bulk Data
$ Elements and Element Properties for region : P1
PSHELL   1       1      1.       1               1
$ Pset: "P1" will be imported as: "pshell.1"
CTRIA3   1       1       202     251     201
CTRIA3   2       1       203     252     202
CTRIA3   3       1       204     253     203
CTRIA3   4       1       205     254     204
CTRIA3   5       1       206     255     205
CTRIA3   6       1       207     256     206
CTRIA3   7       1       208     257     207
CTRIA3   8       1       209     258     208
CTRIA3   9       1       210     259     209
CTRIA3   10      1       211     260     210
CTRIA3   11      1       212     261     211
CTRIA3   12      1       213     262     212
CTRIA3   13      1       214     263     213
CTRIA3   14      1       215     264     214
CTRIA3   15      1       216     265     215
CTRIA3   16      1       217     266     216
CTRIA3   17      1       218     267     217
CTRIA3   18      1       219     268     218
CTRIA3   19      1       220     269     219
CTRIA3   20      1       221     270     220
$ ... 3764 like lines cut
$ Referenced Material Records
$ Material Record : STEEL
$ Description of Material : Date: 06-Jun-20           Time: 12:00:59
MAT1     1      200000.         .3      7.8-9
$ Nodes of the Entire Model
GRID     1              -5.     5.       0.
GRID     2              35.     5.       0.
GRID     3              -4.5    5.       0.
GRID     4              -4.     5.       0.
GRID     5              -3.5    5.       0.
GRID     6              -3.     5.       0.
GRID     7              -2.5    5.       0.
GRID     8              -2.     5.       0.
GRID     9              -1.5    5.       0.
GRID     10             -1.     5.       0.
GRID     11             -.5     5.       0.
GRID     12             4.7924-75.       0.
GRID     13             .500001 5.       0.
GRID     14             1.      5.       0.
GRID     15             1.5     5.       0.
GRID     16             2.      5.       0.
GRID     17             2.5     5.       0.
GRID     18             3.      5.       0.
GRID     19             3.5     5.       0.
GRID     20             4.      5.       0.
$ ... 1997 like lines cut
$ Loads for Load Case : Default
$ Enforced Displacements for Load Set : BC3
$ Dummy Force Required to Activate the Following Enforced Displacements
FORCE    1       1               0.     .57735  .57735  .57735
SPCD     1       1       1      5.       102     1      5.
SPCD     1       182     1      5.       183     1      5.
SPCD     1       184     1      5.       185     1      5.
SPCD     1       186     1      5.       187     1      5.
SPCD     1       188     1      5.       189     1      5.
SPCD     1       190     1      5.       191     1      5.
SPCD     1       192     1      5.       193     1      5.
SPCD     1       194     1      5.       195     1      5.
SPCD     1       196     1      5.       197     1      5.
SPCD     1       198     1      5.       199     1      5.
SPCD     1       200     1      5.
$ Displacement Constraints of Load Set : BC1
SPC1     1       123     1       THRU    82
SPC1     1       123     102     THRU    181
$ Displacement Constraints of Load Set : BC2
SPC1     3       123     201     THRU    250
$ Displacement Constraints of Load Set : BC3
SPC1     4       123     1       102
SPC1     4       123     182     THRU    200
$ Referenced Coordinate Frames
