$ NASTRAN input file created by the Patran 2011 64-Bit input file
$ translator on June      06, 2020 at 12:11:33.
$
$ Direct Text Input for Bulk Data
$ Elements and Element Properties for region : P1
PSHELL   1       1      1.       1               1
$ Pset: "P1" will be imported as: "pshell.1"
CTRIA3   1       1       102     151     101
CTRIA3   2       1       103     152     102
CTRIA3   3       1       104     153     103
CTRIA3   4       1       105     154     104
CTRIA3   5       1       106     155     105
CTRIA3   6       1       107     156     106
CTRIA3   7       1       108     157     107
CTRIA3   8       1       109     158     108
CTRIA3   9       1       110     159     109
CTRIA3   10      1       111     160     110
CTRIA3   11      1       112     161     111
CTRIA3   12      1       113     162     112
CTRIA3   13      1       114     163     113
CTRIA3   14      1       115     164     114
CTRIA3   15      1       116     165     115
CTRIA3   16      1       117     166     116
CTRIA3   17      1       118     167     117
CTRIA3   18      1       119     168     118
CTRIA3   19      1       120     169     119
CTRIA3   20      1       121     170     120
$ ... 1278 like lines cut
$ Referenced Material Records
$ Material Record : STEEL
$ Description of Material : Date: 06-Jun-20           Time: 12:00:59
MAT1     1      200000.         .3      7.8-9
$ Nodes of the Entire Model
GRID     1              -5.     5.       0.
GRID     2              35.     5.       0.
GRID     3              -4.     5.       0.
GRID     4              -3.     5.       0.
GRID     5              -2.     5.       0.
GRID     6              -1.     5.       0.
GRID     7              -1.151-75.       0.
GRID     8              1.      5.       0.
GRID     9              2.      5.       0.
GRID     10             3.      5.       0.
GRID     11             4.      5.       0.
GRID     12             5.      5.       0.
GRID     13             6.      5.       0.
GRID     14             7.      5.       0.
GRID     15             8.      5.       0.
GRID     16             9.      5.       0.
GRID     17             10.     5.       0.
GRID     18             11.     5.       0.
GRID     19             12.     5.       0.
GRID     20             13.     5.       0.
$ ... 704 like lines cut
$ Loads for Load Case : Default
$ Enforced Displacements for Load Set : BC3
$ Dummy Force Required to Activate the Following Enforced Displacements
FORCE    1       1               0.     .57735  .57735  .57735
SPCD     1       1       1      5.       52      1      5.
SPCD     1       92      1      5.       93      1      5.
SPCD     1       94      1      5.       95      1      5.
SPCD     1       96      1      5.       97      1      5.
SPCD     1       98      1      5.       99      1      5.
SPCD     1       100     1      5.
$ Displacement Constraints of Load Set : BC1
SPC1     1       123     1       THRU    42
SPC1     1       123     52      THRU    91
$ Displacement Constraints of Load Set : BC2
SPC1     3       123     101     THRU    150
$ Displacement Constraints of Load Set : BC3
SPC1     4       123     1       52
SPC1     4       123     92      THRU    100
$ Referenced Coordinate Frames
